&NAMDIM
NPROMA=-8,
NUNDEFLD=1,
/
&NAMGFL
YQ_NL%LGP=true,
YQ_NL%LSP=false,
YO3_NL%LGP=false,
YQ_NL%LGPINGP=true,
YR_NL%NREQIN=-1,
YS_NL%NREQIN=-1,
/
&NAMPAR0
  LSTATS=.TRUE.,
  LDETAILED_STATS=.FALSE.,
  LSYNCSTATS=.false.,
  MP_TYPE=2,
  MBX_SIZE=320000000,
  NPROC=1,
  NOUTPUT=1,
/   
&NAMCT0
 NFPOS=2,
 LREFOUT=false,
 N3DINI=0,
 NSTOP=96,
 NFRDHP=1,
 NFRDHFD=1,
 NFRHIS=12,
 NFRPOS=12,
 NPOSTS=0,
 NHISTS=0,
 NFRSDI=1, 
 LSLAG=true,
 LSLPHY=.false.,
 LSLPHY=.true.,
/    
&NAMPAR1
  LSPLIT=true,
  NFLDIN=0,
  NSTRIN=1,
  NSTROUT=0,
  NOUTTYPE=1,
  LPPTSF=false,
  NPPBUFLEN=100000,
/   
&NAMRIP
  NINDAT=19970115,
  NSSSSS=43200,
/   
&NAMDYN
 TSTEP=900.000000,
/
&NAEPHY
 LEPHYS=true,
 LERADI=true,
 LELAIV=false,
/   
&NAERAD
 NRPROMA=-8,
 CRTABLEDIR="./rtable",    ! modify this for your installation
/   
&NAMGEM
  NHTYP=0,
/   
&NAMDPHY
! NVXTR2=0,
! NVEXTR=0,
! NCEXTR=0,
/      
&NAMAFN
  TFP_FUA(1)%LLGP=.false.,
/   
&NAMRES
  NFRRES=9999,
/   
&NAMFPC
    CFPFMT='MODEL',
    NFP3DFS=2,
    MFP3DFS(1:)=130,133,
    NRFP3S=-99,
    NFP2DF=1,
    MFP2DF=152,
    NFP3DFP=1,
    MFP3DFP=130,
    RFP3P(1:)=100000.,85000.,70000.,50000.,
    NFPPHY=0,
    MFPPHY(1:)=129,136,137,139,
/
&NAEAER
/
&NAEPHY
/
&NAERAD
/
&NALBAR
/
&NALORI
/
&NAM_DISTRIBUTED_VECTORS
/
&NAM926
/
&NAMAFN
/
&NAMANA
/
&NAMARPHY
/
&NAMCA
/
&NAMCAPE
/
&NAMCFU
/
&NAMCHK
/
&NAMCHET
/
&NAMCLDP
/
&NAMCLTC
/
&NAMCOM
/
&NAMCOS
/
&NAMCTAN
/
&NAMCUMF
/
&NAMCUMFS
/
&NAMCT1
/
&NAMCVA
/
&NAMDDH
/
&NAMDFHD
/
&NAMDFI
/
&NAMDIF
/
&NAMDIM
/
&NAMDIMO
/
&NAMDMSP
/
&NAMDPHY
/
&NAMDYN
/
&NAMDYNA
/
&NAMDYNCORE
/
&NAMEMIS_CONF
/
&NAMENKF
/
&NAMFA
/
&NAMFFT
/
&NAMFPC
/
&NAMFPD
/
&NAMFPDY2
/
&NAMFPDYH
/
&NAMFPDYP
/
&NAMFPDYS
/
&NAMFPDYT
/
&NAMFPDYV
/
&NAMFPEZO
/
&NAMFPF
/
&NAMFPG
/
&NAMFPIOS
/
&NAMFPPHY
/
&NAMFPSC2
/
&NAMFPSC2_DEP
/
&NAMFY2
/
&NAMGEM
/
&NAMGFL
/
&NAMGMS
/
&NAMGOES
/
&NAMGOM
/
&NAMGRIB
/
&NAMGWD
/
&NAMGWWMS
/
&NAMHLOPT
/
&NAMINI
/
&NAMIOMI
/
&NAMIOS
/
&NAMJBCODES
/
&NAMJFH
/
&NAMJG
/
&NAMJO
/
&NAMKAP
/
&NAMLCZ
/
&NAMLEG
/
&NAMLFI
/
&NAMMCC
/
&NAMMCUF
/
&NAMMETEOSAT
/
&NAMMTS
/
&NAMMTSAT
/
&NAMMTT
/
&NAMMUL
/
&NAMNMI
/
&NAMNASA
/
&NAMNN
/
&NAMNPROF
/
&NAMNUD
/
&NAMOBS
/
&NAMONEDVAR
/
&NAMOPH
/
&NAMOPTCMEM
/
&NAMPAR0
/
&NAMPARAR
/
&NAMPAR1
/
&NAMPHY
/
&NAMPHY0
/
&NAMPHY1
/
&NAMPHY2
/
&NAMPHY3
/
&NAMPHYDS
/
&NAMPPC
/
&NAMPONG
/
&NAMRAD15
/
&NAMRADCMEM
/
&NAMRCOEF
/
&NAMRES
/
&NAMRINC
/
&NAMRIP
/
&NAMSATS
/
&NAMSCC
/
&NAMSCEN
/
&NAMSCM
/
&NAMSENS
/
&NAMSIMPHL
/
&NAMSKF
/
&NAMSPSDT
/
&NAMSSMI
/
&NAMSTA
/
&NAMSTOPH
/
&NAMTCWV
/
&NAMTESTVAR
/
&NAMTOPH
/
&NAMTOVS
/
&NAMTRAJP
/
&NAMTRANS
/
&NAMTRM
/
&NAMVAR
/
&NAMVARBC
/
&NAMVARBC_AIREP
/
&NAMVARBC_ALLSKY
/
&NAMVARBC_GBRAD
/
&NAMVARBC_RAD
/
&NAMVARBC_SFCOBS
/
&NAMVARBC_TCWV
/
&NAMVARBC_TO3
/
&NAMVAREPS
/
&NAMVDOZ
/
&NAMVFP
/
&NAMVRTL
/
&NAMVV0
/
&NAMVV1
/
&NAMVV2
/
&NAMVWRK
/
&NAMWAVELETJB
/
&NAMXFU
/
&NAMZDI
/
&NAPHLC
/
&NAV1IS
/
&NAEPHLI
/
&NAMCVER
/
&NAMPPVI
/
&NAMSPNG
/
&NAMRLX
/
